36
conf_0026 -880.660653
C               -0.790677           -2.087426            0.012240
C               -0.314185           -1.266689           -1.185258
C                0.704702           -0.188124           -0.841047
C                0.209680            0.723528            0.292174
C               -1.276722            1.074605            0.064902
C               -2.057342           -0.101784           -0.505926
O               -1.531204           -0.656570           -1.622303
O                0.384625            0.064534            1.521811
O                1.882284           -0.902008           -0.515908
O               -1.899770           -1.246026            0.529425
H               -0.063337           -2.173347            0.815898
H               -1.221419           -3.042414           -0.287831
H                0.054510           -1.903491           -1.988232
H                0.858796            0.429445           -1.731578
H                0.792682            1.648245            0.264017
H               -1.721857            1.349296            1.033167
H               -3.122499            0.093997           -0.628901
O               -1.459076            2.067831           -0.898188
C               -3.116689           -1.952837            0.909819
H               -3.770642           -1.215497            1.371344
H               -3.568162           -2.401308            0.022739
H               -2.825001           -2.705452            1.639820
C               -1.331865            3.394196           -0.405469
H               -2.084351            3.597859            0.366051
H               -0.331044            3.581469            0.000082
H               -1.497503            4.054970           -1.254820
C                0.712175            0.936292            2.592018
H                1.650316            1.464901            2.388024
H               -0.082307            1.671234            2.775589
H                0.830608            0.317177            3.480845
C                3.015490           -0.158871           -0.358697
O                3.010619            1.033316           -0.485723
C                4.181252           -1.025255           -0.022397
H                4.320185           -1.782765           -0.797255
H                3.991595           -1.547759            0.918639
H                5.074681           -0.410989            0.065334
