36
conf_0014 -880.668370
C                2.396782           -0.791266            0.600883
C                1.180923            0.099992            0.498220
C               -0.102802           -0.530645            0.987176
C               -1.272159            0.475311            0.959633
C               -1.097012            1.450320           -0.211244
C               -0.224954            0.784079           -1.273350
O                1.019580            0.462268           -0.888024
O               -2.507902           -0.159061            0.820673
O               -0.447031           -1.688630            0.149655
O                3.508993           -0.003363            0.327706
H                2.306549           -1.630075           -0.108227
H                2.439372           -1.213163            1.619822
H                1.357208            1.015196            1.075465
H                0.027850           -0.978408            1.971610
H               -1.214120            1.069642            1.881746
H               -2.086208            1.667361           -0.635907
H               -0.184334            1.295840           -2.232096
O               -0.467339            2.588198            0.287615
C                4.717371           -0.735959            0.311897
H                5.515520           -0.026225            0.098218
H                4.908389           -1.210330            1.283685
H                4.703274           -1.507637           -0.469056
C               -0.429618            3.697152           -0.602277
H                0.270659            3.531495           -1.428683
H               -1.429195            3.912737           -0.998067
H               -0.083879            4.547935           -0.017449
C               -2.957647           -0.832011            1.989603
H               -2.335798           -1.706346            2.218714
H               -2.965992           -0.152637            2.849260
H               -3.974952           -1.163131            1.785847
C               -0.994697           -1.550796           -1.004774
O               -0.995613           -0.486887           -1.692794
C               -1.652862           -2.743820           -1.567437
H               -2.691765           -2.729934           -1.216989
H               -1.177993           -3.649735           -1.191200
H               -1.650046           -2.706938           -2.655299
