36
conf_0030 -880.657490
C               -0.211108            1.832328            0.236183
C               -0.310960            0.990403           -1.038817
C               -0.683809           -0.493466           -0.906768
C                0.101904           -1.143823            0.227769
C                1.595509           -0.785608            0.084754
C                1.787160            0.656617           -0.395490
O                1.062054            0.998437           -1.486859
O               -0.423942           -0.695003            1.448455
O               -2.052980           -0.847902           -0.799652
O                1.193642            1.564796            0.691531
H               -0.850064            1.526021            1.052930
H               -0.276521            2.896784            0.015141
H               -0.900458            1.494983           -1.798759
H               -0.344703           -0.947093           -1.842439
H                0.020736           -2.233876            0.137318
H                2.083983           -0.908308            1.061723
H                2.831860            0.942694           -0.522079
O                2.150997           -1.614818           -0.890967
C                1.975467            2.747205            1.033844
H                2.913696            2.389910            1.454320
H                2.131297            3.350298            0.137343
H                1.407220            3.287726            1.788431
C                3.525208           -1.922699           -0.712939
H                4.160646           -1.030150           -0.774391
H                3.691601           -2.422650            0.248737
H                3.798075           -2.598368           -1.522132
C               -0.312453           -1.630208            2.508213
H               -0.853841           -2.553002            2.270186
H                0.734408           -1.874642            2.728857
H               -0.758699           -1.166479            3.387331
C               -2.997963            0.019686           -0.381174
O               -2.779174            1.185155           -0.167202
C               -4.317114           -0.662458           -0.247581
H               -4.261407           -1.400771            0.556775
H               -4.557831           -1.199706           -1.167203
H               -5.085825            0.073454           -0.022508
