36
conf_0010 -880.672869
C                2.207735           -1.384128           -0.910890
C                0.735480           -1.138916           -0.683725
C                0.213332            0.217813           -1.117295
C               -1.305015            0.295785           -0.963360
C               -1.754909           -0.472897            0.296357
C               -0.558568           -0.639140            1.232902
O                0.479313           -1.327853            0.720022
O               -1.661075            1.643557           -0.940649
O                0.837080            1.296421           -0.348380
O                2.955864           -0.385113           -0.283229
H                2.395826           -1.408887           -1.996513
H                2.448599           -2.379107           -0.507686
H                0.163920           -1.891512           -1.242276
H                0.516374            0.450458           -2.136961
H               -1.743250           -0.233530           -1.821771
H               -2.533181            0.100403            0.819567
H               -0.802274           -1.050770            2.209829
O               -2.213420           -1.721572           -0.122750
C                4.348862           -0.623146           -0.357518
H                4.844163            0.204996            0.148622
H                4.616040           -1.562387            0.142937
H                4.689785           -0.661045           -1.399977
C               -2.887170           -2.487216            0.866884
H               -2.195830           -2.877908            1.622197
H               -3.669932           -1.893174            1.354178
H               -3.346514           -3.326787            0.347331
C               -3.014952            1.892640           -1.293549
H               -3.216207            1.552749           -2.315721
H               -3.712603            1.400295           -0.605655
H               -3.158411            2.970345           -1.234233
C                0.579750            1.515193            0.877852
O               -0.115060            0.762217            1.636228
C                1.171113            2.728723            1.468677
H                1.132209            3.548660            0.751700
H                2.224520            2.505620            1.675127
H                0.671205            2.982050            2.401351
