36
conf_0011 -880.669805
C                2.499129           -0.513641           -0.747204
C                1.287916            0.273494           -0.263717
C                0.365137           -0.540222            0.610815
C               -0.794855            0.312025            1.158329
C               -1.180843            1.385485            0.131401
C               -0.755037            0.912319           -1.258897
O                0.571406            0.727208           -1.424468
O               -1.931447           -0.450723            1.434206
O               -0.193974           -1.664054           -0.159666
O                3.237759           -0.945669            0.359297
H                3.085293            0.115349           -1.428003
H                2.167959           -1.394819           -1.305901
H                1.607810            1.145751            0.317917
H                0.939776           -1.041802            1.388252
H               -0.424074            0.838025            2.048796
H               -2.271254            1.512742            0.153360
H               -1.135477            1.508919           -2.084749
O               -0.499529            2.553806            0.468757
C                4.311571           -0.090926            0.715403
H                4.786908           -0.530978            1.591541
H                5.045630           -0.026622           -0.096088
H                3.966541            0.920224            0.969028
C               -0.944609            3.726072           -0.201820
H               -0.668296            3.719228           -1.262449
H               -2.030151            3.843123           -0.102328
H               -0.447639            4.564899            0.282943
C               -1.812519           -1.286094            2.578961
H               -1.089090           -2.094193            2.416245
H               -1.517258           -0.701027            3.457084
H               -2.797246           -1.717955            2.751840
C               -1.152780           -1.504212           -0.993974
O               -1.506248           -0.395401           -1.504870
C               -1.886911           -2.714809           -1.403698
H               -2.742394           -2.813212           -0.724686
H               -1.255475           -3.595557           -1.292081
H               -2.262487           -2.610362           -2.420365
