36
conf_0035 -880.654021
C               -0.328680           -1.272177           -1.579175
C                0.148654            0.167491           -1.393065
C                0.699924            0.487493           -0.002983
C               -0.289431            0.118486            1.107588
C               -1.737244            0.492515            0.716821
C               -1.975539            0.325102           -0.784106
O               -1.057719            0.919470           -1.584123
O               -0.290971           -1.275140            1.339160
O                1.908380           -0.215188            0.228008
O               -1.750174           -1.148386           -1.200915
H                0.150508           -1.976376           -0.901485
H               -0.319380           -1.600180           -2.617051
H                0.857284            0.475739           -2.159936
H                0.890030            1.564548            0.003688
H               -0.033732            0.656234            2.028317
H               -2.384879           -0.206091            1.254088
H               -2.990119            0.576381           -1.093628
O               -2.192364            1.759823            1.086268
C               -2.436605           -2.268934           -0.567461
H               -3.474000           -1.959423           -0.450426
H               -2.371175           -3.100003           -1.267898
H               -1.955970           -2.482616            0.385476
C               -1.379456            2.898620            0.823857
H               -0.448847            2.869041            1.402138
H               -1.155377            3.015871           -0.240360
H               -1.963637            3.753228            1.161558
C                0.478462           -1.700612            2.460479
H                1.535128           -1.458416            2.326128
H                0.101632           -1.241257            3.381261
H                0.358322           -2.781968            2.527553
C                3.033018            0.333532           -0.335821
O                2.974268            1.293504           -1.049551
C                4.255062           -0.413766            0.075842
H                4.104878           -1.489788           -0.030390
H                4.458167           -0.211263            1.131516
H                5.100812           -0.082837           -0.523191
