36
conf_0005 -880.672740
C               -2.540899           -0.620452           -0.508768
C               -1.057188           -0.858826           -0.308238
C               -0.415196            0.102932            0.663781
C                1.063215           -0.249139            0.908443
C                1.679706           -0.825182           -0.382223
C                0.865008           -0.360830           -1.577378
O               -0.429263           -0.734859           -1.592053
O                1.820598            0.858186            1.294895
O               -0.497665            1.476894            0.140213
O               -3.122529           -0.723791            0.756098
H               -2.927071           -1.375344           -1.207872
H               -2.710238            0.371536           -0.956635
H               -0.895763           -1.873223            0.073692
H               -1.005769            0.155788            1.576908
H                1.076248           -1.038772            1.673486
H                2.703174           -0.438616           -0.475486
H                1.318405           -0.590063           -2.538290
O                1.625688           -2.216789           -0.427913
C               -4.536518           -0.654377            0.727149
H               -4.880840           -0.739808            1.757048
H               -4.876590            0.301851            0.309431
H               -4.958470           -1.476253            0.135884
C                2.701948           -2.860451            0.240625
H                3.660343           -2.589395           -0.216598
H                2.725996           -2.607923            1.307890
H                2.537332           -3.931232            0.132380
C                1.542984            1.334659            2.605418
H                0.542382            1.778855            2.670623
H                1.631696            0.525744            3.339758
H                2.287930            2.098540            2.823612
C                0.277817            1.901120           -0.787855
O                0.961523            1.169561           -1.568385
C                0.365091            3.362552           -0.961550
H                1.189104            3.710749           -0.327310
H               -0.553873            3.839100           -0.621594
H                0.593373            3.612807           -1.996193
