36
conf_0009 -880.671618
C               -2.639988           -0.558697           -0.419480
C               -1.144636           -0.785239           -0.325629
C               -0.468924            0.053114            0.734132
C                1.009629           -0.305921            0.865144
C                1.583581           -0.686556           -0.523871
C                0.706347           -0.077262           -1.604388
O               -0.582883           -0.468605           -1.608848
O                1.666507            0.779602            1.450900
O               -0.608166            1.480282            0.389124
O               -3.154064           -0.868087            0.840729
H               -3.045750           -1.209371           -1.206796
H               -2.850832            0.484793           -0.702137
H               -0.945617           -1.838214           -0.097833
H               -0.999938           -0.016010            1.681478
H                1.053568           -1.202238            1.500657
H                2.595175           -0.270453           -0.626640
H                1.113324           -0.166926           -2.608530
O                1.551261           -2.060157           -0.762163
C               -4.567907           -0.818337            0.894078
H               -4.857074           -1.071707            1.913239
H               -4.937190            0.186424            0.652028
H               -5.013407           -1.542822            0.201329
C                2.674710           -2.762399           -0.252516
H                3.599701           -2.411706           -0.725294
H                2.760258           -2.656474            0.836475
H                2.521382           -3.812784           -0.494606
C                2.876767            0.440167            2.111821
H                2.682803           -0.247844            2.942676
H                3.602458           -0.013487            1.425857
H                3.291433            1.368106            2.502556
C                0.107976            2.045051           -0.506377
O                0.789473            1.438856           -1.391811
C                0.137681            3.518341           -0.496540
H                0.885763            3.817376            0.247048
H               -0.827675            3.907623           -0.171415
H                0.423180            3.907014           -1.471790
