36
conf_0027 -880.660644
C               -0.790589           -2.087308            0.012669
C               -0.314267           -1.266776           -1.185044
C                0.704710           -0.188200           -0.841062
C                0.209800            0.723577            0.292130
C               -1.276611            1.074626            0.064930
C               -2.057350           -0.101773           -0.505671
O               -1.531302           -0.656730           -1.622055
O                0.384833            0.064709            1.521794
O                1.882274           -0.902078           -0.515963
O               -1.899873           -1.245925            0.529737
H               -0.063238           -2.172862            0.816350
H               -1.221219           -3.042436           -0.287100
H                0.054353           -1.903709           -1.987952
H                0.858718            0.429290           -1.731663
H                0.792771            1.648313            0.263804
H               -1.721653            1.349531            1.033170
H               -3.122492            0.094084           -0.628638
O               -1.458924            2.067737           -0.898330
C               -3.116971           -1.952902            0.909427
H               -3.771021           -1.215754            1.371120
H               -3.568152           -2.400925            0.021975
H               -2.825523           -2.705883            1.639144
C               -1.332190            3.394153           -0.405639
H               -2.085235            3.597822            0.365334
H               -0.331673            3.581555            0.000616
H               -1.497275            4.054847           -1.255160
C                0.712564            0.936516            2.591904
H                1.650829            1.464887            2.387888
H               -0.081741            1.671692            2.775324
H                0.830780            0.317477            3.480805
C                3.015471           -0.158917           -0.358739
O                3.010531            1.033277           -0.485698
C                4.181258           -1.025329           -0.022655
H                4.320736           -1.782061           -0.798186
H                3.991287           -1.548846            0.917755
H                5.074501           -0.410941            0.066034
