36
conf_0015 -880.668817
C               -2.731408            0.283439           -0.354920
C               -1.339796           -0.334798           -0.332627
C               -0.460341            0.228472            0.758773
C                0.880235           -0.499325            0.827293
C                1.323467           -0.915192           -0.598980
C                0.618622           -0.031149           -1.614450
O               -0.728288           -0.085335           -1.608674
O                1.796066            0.342176            1.463628
O               -0.235842            1.664905            0.510568
O               -3.369474            0.020505            0.861496
H               -3.282544           -0.111314           -1.216942
H               -2.652329            1.368586           -0.474832
H               -1.410231           -1.418351           -0.182448
H               -0.982362            0.231944            1.714169
H                0.702521           -1.420183            1.401540
H                2.406412           -0.763729           -0.702614
H                0.979705           -0.152173           -2.632818
O                0.939697           -2.216930           -0.921961
C               -4.201427           -1.127212            0.848980
H               -4.621242           -1.222511            1.849927
H               -5.018292           -1.010510            0.127402
H               -3.640071           -2.040613            0.610817
C                1.862019           -3.212097           -0.504497
H                2.833815           -3.070595           -0.991982
H                1.997996           -3.209134            0.584562
H                1.443543           -4.170922           -0.806227
C                2.893807           -0.333785            2.059218
H                2.547410           -1.016966            2.843154
H                3.477656           -0.895024            1.319470
H                3.528495            0.431159            2.503850
C                0.587918            2.092663           -0.367965
O                1.083726            1.396708           -1.309296
C                0.985516            3.507838           -0.266435
H                1.787855            3.561883            0.478751
H                0.149190            4.102313            0.103185
H                1.353718            3.876779           -1.221384
