36
conf_0001 -880.672516
C                2.029703           -1.470303           -0.984117
C                0.575333           -1.143027           -0.744349
C                0.160745            0.285771           -1.039253
C               -1.364700            0.465653           -0.881896
C               -1.880798           -0.425418            0.255002
C               -0.721671           -0.760809            1.193096
O                0.285392           -1.455955            0.628766
O               -1.717470            1.782504           -0.589695
O                0.834143            1.236342           -0.155552
O                2.837086           -0.590835           -0.258563
H                2.230778           -1.405065           -2.065815
H                2.194448           -2.513731           -0.676629
H               -0.040902           -1.788211           -1.384076
H                0.509810            0.587488           -2.025977
H               -1.835269            0.108113           -1.808580
H               -2.652268            0.127410            0.807015
H               -1.013719           -1.253376            2.117716
O               -2.373123           -1.594849           -0.324814
C                4.210010           -0.925041           -0.335593
H                4.397036           -1.923027            0.080403
H                4.568437           -0.894502           -1.372461
H                4.754423           -0.185471            0.250892
C               -3.141696           -2.421060            0.539703
H               -2.518485           -2.912835            1.295272
H               -3.932119           -1.841515            1.031065
H               -3.595863           -3.185279           -0.089133
C               -1.563166            2.687332           -1.673937
H               -0.506332            2.845672           -1.921840
H               -2.098085            2.327233           -2.560314
H               -1.997417            3.633243           -1.353666
C                0.544692            1.348917            1.081394
O               -0.202554            0.560486            1.745374
C                1.178053            2.462129            1.810679
H                1.353552            3.304183            1.143193
H                2.145986            2.098709            2.176126
H                0.569152            2.744556            2.668299
