36
conf_0018 -880.667081
C                2.604308            0.056893           -0.705596
C                1.218952           -0.452166           -0.382224
C                0.102473            0.296463           -1.074622
C               -1.254086           -0.356380           -0.811880
C               -1.291039           -0.940136            0.623104
C               -0.239779           -0.239271            1.464912
O                1.028248           -0.343405            1.042599
O               -2.240240            0.604984           -1.045187
O                0.088989            1.694546           -0.610869
O                3.512975           -0.860733           -0.192199
H                2.745562            1.058940           -0.269087
H                2.697748            0.150617           -1.801341
H                1.154415           -1.511878           -0.655794
H                0.283119            0.408434           -2.142734
H               -1.331028           -1.199717           -1.513629
H               -2.276529           -0.747604            1.068416
H               -0.291303           -0.466221            2.526974
O               -0.947341           -2.290323            0.660859
C                4.857545           -0.455985           -0.350942
H                5.477910           -1.243249            0.075311
H                5.113420           -0.330379           -1.411516
H                5.053973            0.484632            0.180423
C               -2.035151           -3.172164            0.429322
H               -2.801711           -3.056450            1.204631
H               -2.488321           -3.008312           -0.556917
H               -1.630551           -4.182150            0.469452
C               -3.518484            0.066777           -1.352608
H               -3.476309           -0.525708           -2.273769
H               -3.905598           -0.556032           -0.537176
H               -4.187339            0.913349           -1.499395
C               -0.408821            2.039841            0.518889
O               -0.667569            1.249530            1.475264
C               -0.697024            3.474124            0.697554
H               -1.676736            3.662582            0.243033
H                0.039460            4.072360            0.160030
H               -0.734037            3.732017            1.753901
