36
conf_0023 -880.661341
C               -0.545195           -2.226898           -0.145722
C               -0.191596           -1.304949           -1.314718
C                0.679579           -0.120254           -0.920348
C                0.054764            0.698762            0.223975
C               -1.466281            0.842214            0.015516
C               -2.084059           -0.407955           -0.603231
O               -1.473848           -0.829831           -1.733372
O                0.313178            0.059979            1.455835
O                1.929569           -0.694545           -0.584783
O               -1.825157           -1.633051            0.295850
H                0.165782           -2.171680            0.676881
H               -0.773460           -3.246904           -0.448940
H                0.251196           -1.851551           -2.145705
H                0.777565            0.535660           -1.791240
H                0.501110            1.695731            0.211527
H               -1.929743            1.032698            0.996250
H               -3.163355           -0.346141           -0.738474
O               -1.797455            1.832086           -0.910087
C               -2.203853           -1.687098            1.701267
H               -3.190163           -1.230500            1.767631
H               -2.262541           -2.743045            1.960364
H               -1.457401           -1.154016            2.286755
C               -1.877846            3.141978           -0.366229
H               -2.665076            3.200562            0.395276
H               -0.922655            3.458876            0.068413
H               -2.126213            3.804220           -1.193939
C                0.686106            0.957611            2.494595
H                1.592374            1.507833            2.221389
H               -0.118072            1.671037            2.715657
H                0.881191            0.354626            3.381595
C                2.953733            0.170329           -0.338148
O                2.801114            1.359351           -0.380640
C                4.212404           -0.564444           -0.024112
H                4.478929           -1.218773           -0.857518
H                4.063092           -1.196450            0.854866
H                5.011703            0.150129            0.159721
