36
conf_0031 -880.656256
C                2.638832           -0.079353           -0.147418
C                1.305399           -0.617738           -0.594642
C                0.165347            0.365902           -0.584486
C               -1.188594           -0.336960           -0.759313
C               -1.366462           -1.306944            0.406694
C               -0.131863           -2.073966            0.690405
O                1.017757           -1.794403            0.304573
O               -2.262111            0.538559           -0.707261
O                0.166398            1.062278            0.650946
O                3.601538           -1.022419           -0.483887
H                2.614931            0.133313            0.931994
H                2.791625            0.880762           -0.669594
H                1.415738           -1.096663           -1.571127
H                0.326631            1.071943           -1.406889
H               -1.179617           -0.910869           -1.700300
H               -1.495849           -0.681008            1.316052
H               -0.210109           -2.989077            1.283439
O               -2.378126           -2.237693            0.247926
C                4.908204           -0.653992           -0.077883
H                5.573630           -1.455611           -0.394510
H                5.219930            0.283849           -0.554410
H                4.966815           -0.544273            1.012409
C               -3.632875           -1.885262            0.839845
H               -3.539954           -1.822474            1.929828
H               -3.992238           -0.936929            0.434091
H               -4.320238           -2.688817            0.582193
C               -2.512678            1.253477           -1.914752
H               -1.705396            1.958753           -2.135280
H               -2.654599            0.559428           -2.751227
H               -3.432418            1.812878           -1.751506
C               -0.036357            2.425666            0.578720
O               -0.089882            2.998595           -0.468560
C               -0.173454            3.011533            1.940252
H                0.556732            2.581820            2.627742
H               -1.172208            2.777223            2.321045
H               -0.060990            4.092236            1.881610
