36
conf_0034 -880.655180
C               -0.939168           -1.908528           -0.530710
C               -0.427804           -0.767054           -1.408568
C                0.670272            0.075928           -0.775188
C                0.254391            0.621185            0.602681
C               -1.227227            1.071844            0.607143
C               -2.080704            0.207151           -0.315292
O               -1.605000            0.030577           -1.574083
O                0.435938           -0.408202            1.544020
O                1.797521           -0.775431           -0.721059
O               -1.993641           -1.235214            0.263880
H               -0.205843           -2.288292            0.176931
H               -1.421868           -2.691909           -1.114482
H               -0.119865           -1.124762           -2.390239
H                0.870130            0.921172           -1.440249
H                0.882617            1.482881            0.849846
H               -1.598562            0.922271            1.625650
H               -3.132866            0.493560           -0.329292
O               -1.487361            2.411258            0.309356
C               -3.252022           -1.960535            0.402147
H               -3.864057           -1.386577            1.095143
H               -3.724195           -2.056572           -0.577461
H               -3.007901           -2.930767            0.830613
C               -0.821255            3.009669           -0.797663
H                0.264556            3.029391           -0.652399
H               -1.065199            2.514676           -1.743303
H               -1.181800            4.036556           -0.832408
C                0.765896            0.057234            2.843608
H                1.700766            0.628863            2.823524
H               -0.028655            0.684444            3.267278
H                0.892393           -0.824383            3.471263
C                2.980606           -0.167109           -0.413247
O                3.046253            1.014769           -0.221810
C                4.094602           -1.155049           -0.355836
H                4.149076           -1.716558           -1.291130
H                3.904399           -1.871127            0.447949
H                5.031654           -0.633353           -0.174114
