36
conf_0002 -880.672895
C               -2.470123           -0.735614           -0.491993
C               -1.019258           -0.898353           -0.083099
C               -0.466102            0.288181            0.669227
C                0.979878            0.036418            1.136076
C                1.710826           -0.851774            0.120486
C                1.027781           -0.705944           -1.239436
O               -0.260213           -1.101921           -1.286178
O                1.705150            1.221886            1.275987
O               -0.487117            1.482567           -0.192091
O               -3.180508           -0.508274            0.687810
H               -2.797169           -1.650997           -1.004869
H               -2.573443            0.102176           -1.199628
H               -0.911432           -1.776359            0.563157
H               -1.141237            0.559981            1.478721
H                0.926555           -0.528582            2.076697
H                2.751161           -0.509224            0.042316
H                1.564806           -1.148435           -2.075069
O                1.613045           -2.167785            0.567441
C               -4.582088           -0.455412            0.494498
H               -5.031295           -0.272634            1.469887
H               -4.856139            0.358425           -0.188937
H               -4.960115           -1.404433            0.094955
C                2.468293           -3.094210           -0.089524
H                2.145688           -3.289160           -1.118760
H                3.504716           -2.736569           -0.087211
H                2.407787           -4.022444            0.476460
C                1.324611            2.011405            2.395727
H                0.318667            2.430591            2.271665
H                1.363958            1.421090            3.317959
H                2.045117            2.825489            2.461091
C                0.389914            1.672354           -1.106394
O                1.139381            0.775633           -1.605099
C                0.518191            3.044015           -1.631050
H                1.289446            3.543436           -1.032543
H               -0.418626            3.585840           -1.505570
H                0.842109            3.028571           -2.670404
