36
conf_0025 -880.659718
C                0.035821            1.404208           -1.480220
C               -0.336714           -0.077302           -1.408602
C               -0.768681           -0.573741           -0.028723
C                0.249653           -0.203871            1.050584
C                1.670577           -0.495985            0.543180
C                1.824722           -0.142163           -0.940472
O                0.902879           -0.715099           -1.744812
O                0.190746            1.165708            1.386247
O               -2.020061           -0.020965            0.341820
O                1.485208            1.343470           -1.186337
H               -0.445612            2.012647           -0.717416
H               -0.047939            1.821296           -2.482130
H               -1.070250           -0.360738           -2.161187
H               -0.836320           -1.663531           -0.105074
H                0.089090           -0.827509            1.936768
H                2.372367            0.089521            1.152893
H                2.828949           -0.285702           -1.339192
O                1.907305           -1.867525            0.642484
C                2.146385            2.440763           -0.490566
H                1.975888            3.330573           -1.094437
H                1.729730            2.525138            0.511010
H                3.207275            2.194746           -0.481617
C                3.257460           -2.234110            0.889518
H                3.921574           -1.942861            0.066668
H                3.617204           -1.789940            1.825240
H                3.269482           -3.319349            0.977351
C               -0.554533            1.460827            2.564564
H               -1.603189            1.179837            2.445439
H               -0.125316            0.943810            3.430270
H               -0.479485            2.537281            2.719705
C               -3.123487           -0.602598           -0.229516
O               -3.024844           -1.458051           -1.061411
C               -4.379913           -0.031798            0.334703
H               -4.328927            1.057998            0.371068
H               -4.505376           -0.391860            1.360032
H               -5.226731           -0.357033           -0.266021
