36
conf_0021 -880.661635
C               -0.720221           -2.146681           -0.447206
C               -0.218926           -1.073499           -1.416133
C                0.671534           -0.009449           -0.788501
C                0.020416            0.623615            0.449039
C               -1.461949            0.923358            0.152407
C               -2.105401           -0.171567           -0.696925
O               -1.438317           -0.453910           -1.839344
O                0.075654           -0.242823            1.563621
O                1.899011           -0.654482           -0.495194
O               -1.987832           -1.534038            0.006976
H               -0.075344           -2.287863            0.417382
H               -0.995295           -3.077935           -0.938872
H                0.258865           -1.508807           -2.292439
H                0.820177            0.778259           -1.533759
H                0.529308            1.566485            0.669176
H               -1.991497            1.006023            1.113536
H               -3.165676           -0.011799           -0.889864
O               -1.637406            2.056898           -0.639865
C               -2.494377           -1.788129            1.350427
H               -3.475105           -1.316970            1.396143
H               -2.595091           -2.868739            1.437148
H               -1.796604           -1.371511            2.073887
C               -1.646676            3.284704            0.075211
H               -2.463523            3.304496            0.806580
H               -0.692668            3.463760            0.584183
H               -1.804033            4.068361           -0.664044
C                1.025455            0.118079            2.558997
H                2.048317            0.068654            2.175706
H                0.829987            1.127753            2.937147
H                0.914816           -0.597330            3.374029
C                2.983589            0.168421           -0.361861
O                2.874906            1.361140           -0.398772
C                4.236023           -0.618985           -0.177465
H                4.477246           -1.134086           -1.111538
H                4.100918           -1.382601            0.591406
H                5.050268            0.052375            0.086875
