36
conf_0020 -880.665601
C                2.106328           -1.546619            0.453749
C                1.198230           -0.325181            0.395671
C               -0.179313           -0.562581            0.971903
C               -1.023958            0.727727            0.973321
C               -0.650774            1.597988           -0.233228
C               -0.062853            0.698522           -1.319043
O                1.065683            0.049333           -0.988573
O               -2.393141            0.462683            0.913803
O               -0.879076           -1.592002            0.189266
O                3.358608           -1.318371           -0.102557
H                1.651759           -2.360545           -0.118458
H                2.178703           -1.864788            1.507313
H                1.641199            0.518521            0.937455
H               -0.120740           -1.014256            1.961874
H               -0.752303            1.295821            1.873738
H               -1.561682            2.080395           -0.611383
H                0.063493            1.165379           -2.293149
O                0.302873            2.518887            0.197331
C                4.237693           -0.566220            0.708522
H                5.202363           -0.561216            0.202481
H                3.905883            0.473659            0.830794
H                4.355356           -1.026414            1.698771
C                0.585902            3.568411           -0.720289
H                1.155141            3.209579           -1.585195
H               -0.339126            4.050559           -1.057644
H                1.191414            4.294097           -0.179627
C               -2.942337           -0.061374            2.116144
H               -2.578243           -1.076332            2.318121
H               -2.707378            0.588938            2.966194
H               -4.022089           -0.091994            1.977594
C               -1.428580           -1.326222           -0.941393
O               -1.174669           -0.313001           -1.658983
C               -2.417319           -2.299615           -1.438881
H               -3.394903           -1.989743           -1.050638
H               -2.195454           -3.294212           -1.052622
H               -2.453737           -2.286708           -2.526766
