36
conf_0019 -880.666775
C                2.085484           -1.194519           -1.204675
C                0.598844           -1.087794           -0.930192
C               -0.031025            0.272762           -1.164915
C               -1.493605            0.286261           -0.760608
C               -1.637439           -0.158522            0.714430
C               -0.310765           -0.720497            1.230772
O                0.361533           -1.556771            0.406921
O               -1.987868            1.564948           -0.994767
O                0.688088            1.349067           -0.471548
O                2.789082           -0.346438           -0.338640
H                2.278371           -0.945835           -2.259660
H                2.375250           -2.242387           -1.044659
H                0.086693           -1.776937           -1.613893
H                0.077114            0.563785           -2.208950
H               -1.996255           -0.453962           -1.403841
H               -1.859702            0.735980            1.304865
H               -0.433623           -1.213321            2.193085
O               -2.701333           -1.025962            0.965928
C                4.181212           -0.612997           -0.319475
H                4.633605            0.080330            0.389752
H                4.378245           -1.639992            0.010299
H                4.627673           -0.456150           -1.308633
C               -2.629120           -2.340740            0.433792
H               -1.832014           -2.930213            0.898353
H               -3.589628           -2.802862            0.656257
H               -2.488419           -2.342915           -0.654348
C               -3.407607            1.647135           -0.963712
H               -3.848615            1.002564           -1.733900
H               -3.809363            1.361344            0.014575
H               -3.660747            2.685407           -1.171586
C                0.977732            1.321218            0.770517
O                0.570750            0.453519            1.608159
C                1.844342            2.403750            1.265741
H                1.564723            3.346873            0.794316
H                2.863636            2.158105            0.948684
H                1.802703            2.466938            2.350804
